/*--------------------------------*- C++ -*----------------------------------*\
| =========                 |                                                 |
| \\      /  F ield         | OpenFOAM: The Open Source CFD Toolbox           |
|  \\    /   O peration     | Version:  v2406                                 |
|   \\  /    A nd           | Website:  www.openfoam.com                      |
|    \\/     M anipulation  |                                                 |
\*---------------------------------------------------------------------------*/
FoamFile
{
    version     2.0;
    format      ascii;
    class       dictionary;
    object      blockMeshDict;
}
// * * * * * * * * * * * * * * * * * * * * * * * * * * * * * * * * * * * * * //

scale   1.0;

vertices
(
    (0 0 0)   // 0
    (1 0 0)   // 1
    (1 1 0)   // 2
    (0 1 0)   // 3
    (0 0 0.1) // 4
    (1 0 0.1) // 5
    (1 1 0.1) // 6
    (0 1 0.1) // 7
    (2 0 0.1) // 8
    (2 1 0.1) // 9
    (2 0 0)  // 11
    (2 1 0)  // 10

);

blocks
(
    hex (0 1 2 3 4 5 6 7) (20 20 1) simpleGrading (1 1 1)
    hex (1 11 10 2 5 8 9 6) (20 20 1) simpleGrading (1 1 1)
);

edges
(
);

boundary
(
    topWall
    {
        type wall;
        faces
        (
            (3 7 6 2)
            (6 9 10 2)(0 4 7 3)
            (1 5 4 0)
            (11 8 5 1)
            (11 10 9 8)

        );
    }
    fixedWalls
    {
        type wall;
        faces
        (
            (0 4 7 3)
            (2 6 5 1)
            (1 5 4 0)
        );
    }
    frontAndBack
    {
        type empty;
        faces
        (
            (0 3 2 1)
            (4 5 6 7)
        );
    }
);


// ************************************************************************* //
